<additional xmlns:xsi="http://www.w3.org/2001/XMLSchema-instance" xsi:noNamespaceSchemaLocation="http://sumo.dlr.de/xsd/additional_file.xsd">
    <busStop id="busstop1" lane="edge3_0" startPos="35" endPos="50" lines="100 101 102"/>
    <busStop id="busstop2" lane="edge2_0" startPos="35" endPos="50" lines="100 101 102"/>

		
</additional>
