<?xml version="1.0" encoding="UTF-8"?>

<!-- generated on 03/01/20 00:23:52 by Eclipse SUMO netedit Version 1.3.1
<configuration xmlns:xsi="http://www.w3.org/2001/XMLSchema-instance" xsi:noNamespaceSchemaLocation="http://sumo.dlr.de/xsd/netconvertConfiguration.xsd">

    <input>
        <sumo-net-file value="C:\sumo-1.3.1\file\busses\input_net.net.xml"/>
    </input>

    <output>
        <output-file value="C:\sumo-1.3.1\file\busses\input_net.net.xml"/>
    </output>

    <processing>
        <geometry.max-grade.fix value="false"/>
        <offset.disable-normalization value="true"/>
        <opposites.guess.fix-lengths value="true"/>
        <lefthand value="false"/>
    </processing>

    <junctions>
        <no-internal-links value="false"/>
        <no-turnarounds value="true"/>
        <junctions.corner-detail value="5"/>
        <junctions.limit-turn-speed value="5.5"/>
        <rectangular-lane-cut value="false"/>
    </junctions>

    <pedestrian>
        <walkingareas value="false"/>
    </pedestrian>

</configuration>
-->

<net version="1.3" junctionCornerDetail="5" limitTurnSpeed="5.50" xmlns:xsi="http://www.w3.org/2001/XMLSchema-instance" xsi:noNamespaceSchemaLocation="http://sumo.dlr.de/xsd/net_file.xsd">

    <location netOffset="0.00,0.00" convBoundary="-100.00,-100.00,100.00,100.00" origBoundary="-10000000000.00,-10000000000.00,10000000000.00,10000000000.00" projParameter="!"/>

    <edge id=":gneJ0_w0" function="walkingarea">
        <lane id=":gneJ0_w0_0" index="0" allow="pedestrian" speed="1.00" length="9.60" width="3.20" shape="0.00,100.00 -3.20,100.00 -3.20,100.00 -6.40,100.00 6.40,100.00 3.20,100.00 3.20,100.00 0.00,100.00"/>
    </edge>
    <edge id=":gneJ1_0" function="internal">
        <lane id=":gneJ1_0_0" index="0" speed="6.51" length="9.03" shape="-4.80,10.40 -5.15,7.95 -6.20,6.20 -7.95,5.15 -10.40,4.80"/>
    </edge>
    <edge id=":gneJ1_1" function="internal">
        <lane id=":gneJ1_1_0" index="0" speed="13.89" length="20.80" shape="-4.80,10.40 -4.80,-10.40"/>
        <lane id=":gneJ1_1_1" index="1" speed="13.89" length="20.80" shape="-1.60,10.40 -1.60,-10.40"/>
    </edge>
    <edge id=":gneJ1_3" function="internal">
        <lane id=":gneJ1_3_0" index="0" speed="9.26" length="6.96" shape="-1.60,10.40 -0.85,5.15 -0.00,3.73"/>
    </edge>
    <edge id=":gneJ1_17" function="internal">
        <lane id=":gneJ1_17_0" index="0" speed="9.26" length="12.40" shape="-0.00,3.73 1.40,1.40 5.15,-0.85 10.40,-1.60"/>
    </edge>
    <edge id=":gneJ1_4" function="internal">
        <lane id=":gneJ1_4_0" index="0" speed="6.51" length="9.03" shape="10.40,4.80 7.95,5.15 6.20,6.20 5.15,7.95 4.80,10.40"/>
    </edge>
    <edge id=":gneJ1_5" function="internal">
        <lane id=":gneJ1_5_0" index="0" speed="13.89" length="20.80" shape="10.40,4.80 -10.40,4.80"/>
        <lane id=":gneJ1_5_1" index="1" speed="13.89" length="20.80" shape="10.40,1.60 -10.40,1.60"/>
    </edge>
    <edge id=":gneJ1_7" function="internal">
        <lane id=":gneJ1_7_0" index="0" speed="9.02" length="5.28" shape="10.40,1.60 6.14,0.52 5.42,-0.00"/>
    </edge>
    <edge id=":gneJ1_18" function="internal">
        <lane id=":gneJ1_18_0" index="0" speed="9.02" length="13.05" shape="5.42,-0.00 2.28,-2.28 -0.52,-6.14 -1.60,-10.40"/>
    </edge>
    <edge id=":gneJ1_8" function="internal">
        <lane id=":gneJ1_8_0" index="0" speed="6.51" length="9.03" shape="4.80,-10.40 5.15,-7.95 6.20,-6.20 7.95,-5.15 10.40,-4.80"/>
    </edge>
    <edge id=":gneJ1_9" function="internal">
        <lane id=":gneJ1_9_0" index="0" speed="13.89" length="20.80" shape="4.80,-10.40 4.80,10.40"/>
        <lane id=":gneJ1_9_1" index="1" speed="13.89" length="20.80" shape="1.60,-10.40 1.60,10.40"/>
    </edge>
    <edge id=":gneJ1_11" function="internal">
        <lane id=":gneJ1_11_0" index="0" speed="9.26" length="6.96" shape="1.60,-10.40 0.85,-5.15 0.00,-3.73"/>
    </edge>
    <edge id=":gneJ1_19" function="internal">
        <lane id=":gneJ1_19_0" index="0" speed="9.26" length="12.40" shape="0.00,-3.73 -1.40,-1.40 -5.15,0.85 -10.40,1.60"/>
    </edge>
    <edge id=":gneJ1_12" function="internal">
        <lane id=":gneJ1_12_0" index="0" speed="6.51" length="9.03" shape="-10.40,-4.80 -7.95,-5.15 -6.20,-6.20 -5.15,-7.95 -4.80,-10.40"/>
    </edge>
    <edge id=":gneJ1_13" function="internal">
        <lane id=":gneJ1_13_0" index="0" speed="13.89" length="20.80" shape="-10.40,-4.80 10.40,-4.80"/>
    </edge>
    <edge id=":gneJ1_14" function="internal">
        <lane id=":gneJ1_14_0" index="0" speed="10.10" length="13.42" shape="-10.40,-4.80 -5.00,-3.43 -0.11,0.11 0.95,1.58"/>
    </edge>
    <edge id=":gneJ1_15" function="internal">
        <lane id=":gneJ1_15_0" index="0" speed="13.89" length="20.80" shape="-10.40,-1.60 10.40,-1.60"/>
    </edge>
    <edge id=":gneJ1_16" function="internal">
        <lane id=":gneJ1_16_0" index="0" speed="9.26" length="6.96" shape="-10.40,-1.60 -5.15,-0.85 -3.73,-0.00"/>
    </edge>
    <edge id=":gneJ1_20" function="internal">
        <lane id=":gneJ1_20_0" index="0" speed="10.10" length="9.79" shape="0.95,1.58 3.43,5.00 4.80,10.40"/>
    </edge>
    <edge id=":gneJ1_21" function="internal">
        <lane id=":gneJ1_21_0" index="0" speed="9.26" length="12.40" shape="-3.73,-0.00 -1.40,1.40 0.85,5.15 1.60,10.40"/>
    </edge>
    <edge id=":gneJ1_w0" function="walkingarea">
        <lane id=":gneJ1_w0_0" index="0" allow="pedestrian" speed="1.00" length="16.45" width="3.20" shape="-6.40,10.40 -3.20,10.40 -3.20,10.40 0.00,10.40 0.00,10.40 3.20,10.40 3.20,10.40 6.40,10.40 10.40,6.40 10.40,3.20 10.40,3.20 10.40,0.00 10.40,0.00 10.40,-3.20 10.40,-3.20 10.40,-6.40 6.40,-10.40 3.20,-10.40 3.20,-10.40 0.00,-10.40 0.00,-10.40 -3.20,-10.40 -3.20,-10.40 -6.40,-10.40 -10.40,-6.40 -10.40,-3.20 -10.40,-3.20 -10.40,0.00 -10.40,0.00 -10.40,3.20 -10.40,3.20 -10.40,6.40 -6.51,9.18 -6.84,8.18 -7.40,7.40 -8.18,6.84 -9.18,6.51"/>
    </edge>
    <edge id=":gneJ2_w0" function="walkingarea">
        <lane id=":gneJ2_w0_0" index="0" allow="pedestrian" speed="1.00" length="9.60" width="3.20" shape="-100.00,0.00 -100.00,-3.20 -100.00,-3.20 -100.00,-6.40 -100.00,6.40 -100.00,3.20 -100.00,3.20 -100.00,0.00"/>
    </edge>
    <edge id=":gneJ3_w0" function="walkingarea">
        <lane id=":gneJ3_w0_0" index="0" allow="pedestrian" speed="1.00" length="9.60" width="3.20" shape="0.00,-100.00 3.20,-100.00 3.20,-100.00 6.40,-100.00 -6.40,-100.00 -3.20,-100.00 -3.20,-100.00 0.00,-100.00"/>
    </edge>
    <edge id=":gneJ4_w0" function="walkingarea">
        <lane id=":gneJ4_w0_0" index="0" allow="pedestrian" speed="1.00" length="9.60" width="3.20" shape="100.00,0.00 100.00,3.20 100.00,3.20 100.00,6.40 100.00,-6.40 100.00,-3.20 100.00,-3.20 100.00,0.00"/>
    </edge>

    <edge id="edge1" from="gneJ0" to="gneJ1" priority="-1">
        <lane id="edge1_0" index="0" speed="13.89" length="89.60" shape="-4.80,100.00 -4.80,10.40"/>
        <lane id="edge1_1" index="1" speed="13.89" length="89.60" shape="-1.60,100.00 -1.60,10.40"/>
    </edge>
    <edge id="edge2" from="gneJ1" to="gneJ0" priority="-1">
        <lane id="edge2_0" index="0" speed="13.89" length="89.60" shape="4.80,10.40 4.80,100.00"/>
        <lane id="edge2_1" index="1" speed="13.89" length="89.60" shape="1.60,10.40 1.60,100.00"/>
    </edge>
    <edge id="edge3" from="gneJ4" to="gneJ1" priority="-1">
        <lane id="edge3_0" index="0" speed="13.89" length="89.60" shape="100.00,4.80 10.40,4.80"/>
        <lane id="edge3_1" index="1" speed="13.89" length="89.60" shape="100.00,1.60 10.40,1.60"/>
    </edge>
    <edge id="edge4" from="gneJ1" to="gneJ4" priority="-1">
        <lane id="edge4_0" index="0" speed="13.89" length="89.60" shape="10.40,-4.80 100.00,-4.80"/>
        <lane id="edge4_1" index="1" speed="13.89" length="89.60" shape="10.40,-1.60 100.00,-1.60"/>
    </edge>
    <edge id="edge5" from="gneJ3" to="gneJ1" priority="-1">
        <lane id="edge5_0" index="0" speed="13.89" length="89.60" shape="4.80,-100.00 4.80,-10.40"/>
        <lane id="edge5_1" index="1" speed="13.89" length="89.60" shape="1.60,-100.00 1.60,-10.40"/>
    </edge>
    <edge id="edge6" from="gneJ1" to="gneJ3" priority="-1">
        <lane id="edge6_0" index="0" speed="13.89" length="89.60" shape="-4.80,-10.40 -4.80,-100.00"/>
        <lane id="edge6_1" index="1" speed="13.89" length="89.60" shape="-1.60,-10.40 -1.60,-100.00"/>
    </edge>
    <edge id="edge7" from="gneJ2" to="gneJ1" priority="-1">
        <lane id="edge7_0" index="0" speed="13.89" length="89.60" shape="-100.00,-4.80 -10.40,-4.80"/>
        <lane id="edge7_1" index="1" speed="13.89" length="89.60" shape="-100.00,-1.60 -10.40,-1.60"/>
    </edge>
    <edge id="edge8" from="gneJ1" to="gneJ2" priority="-1">
        <lane id="edge8_0" index="0" speed="13.89" length="89.60" shape="-10.40,4.80 -100.00,4.80"/>
        <lane id="edge8_1" index="1" speed="13.89" length="89.60" shape="-10.40,1.60 -100.00,1.60"/>
    </edge>

    <tlLogic id="gneJ1" type="static" programID="0" offset="0">
        <phase duration="42" state="GGGgrrrrGGGgrrrrr"/>
        <phase duration="3"  state="yyyyrrrryyyyrrrrr"/>
        <phase duration="42" state="rrrrGGGgrrrrGGgGg"/>
        <phase duration="3"  state="rrrryyyyrrrryyyyy"/>
    </tlLogic>

    <junction id="gneJ0" type="dead_end" x="0.00" y="100.00" incLanes="edge2_0 edge2_1" intLanes="" shape="0.00,100.00 6.40,100.00 0.00,100.00"/>
    <junction id="gneJ1" type="traffic_light" x="0.00" y="0.00" incLanes="edge1_0 edge1_1 edge3_0 edge3_1 edge5_0 edge5_1 edge7_0 edge7_1" intLanes=":gneJ1_0_0 :gneJ1_1_0 :gneJ1_1_1 :gneJ1_17_0 :gneJ1_4_0 :gneJ1_5_0 :gneJ1_5_1 :gneJ1_18_0 :gneJ1_8_0 :gneJ1_9_0 :gneJ1_9_1 :gneJ1_19_0 :gneJ1_12_0 :gneJ1_13_0 :gneJ1_20_0 :gneJ1_15_0 :gneJ1_21_0" shape="-6.40,10.40 6.40,10.40 6.84,8.18 7.40,7.40 8.18,6.84 9.18,6.51 10.40,6.40 10.40,-6.40 8.18,-6.84 7.40,-7.40 6.84,-8.18 6.51,-9.18 6.40,-10.40 -6.40,-10.40 -6.84,-8.18 -7.40,-7.40 -8.18,-6.84 -9.18,-6.51 -10.40,-6.40 -10.40,6.40 -8.18,6.84 -7.40,7.40 -6.84,8.18 -6.51,9.18">
        <request index="0"  response="00000000000000000" foes="00000000001100000" cont="0"/>
        <request index="1"  response="10100000010000000" foes="11111100011100000" cont="0"/>
        <request index="2"  response="10100000010000000" foes="11111100011100000" cont="0"/>
        <request index="3"  response="10100011010000000" foes="11110011011100000" cont="1"/>
        <request index="4"  response="00000011000000000" foes="10100011000000000" cont="0"/>
        <request index="5"  response="00000111000001111" foes="10100111000001111" cont="0"/>
        <request index="6"  response="00000111000001111" foes="10100111000001111" cont="0"/>
        <request index="7"  response="01010111000001110" foes="01010111000001110" cont="1"/>
        <request index="8"  response="00000000000000000" foes="01010000000000000" cont="0"/>
        <request index="9"  response="10100000010000000" foes="11110000011111000" cont="0"/>
        <request index="10" response="10100000010000000" foes="11110000011111000" cont="0"/>
        <request index="11" response="10100000010000110" foes="11110000011100110" cont="1"/>
        <request index="12" response="00000000000000110" foes="00000000000000110" cont="0"/>
        <request index="13" response="00000111100001110" foes="00000111110001110" cont="0"/>
        <request index="14" response="00000000000000000" foes="01000111001111110" cont="1"/>
        <request index="15" response="00000111100001110" foes="00100111110001110" cont="0"/>
        <request index="16" response="00000111001111110" foes="00000111001111110" cont="1"/>
    </junction>
    <junction id="gneJ2" type="dead_end" x="-100.00" y="0.00" incLanes="edge8_0 edge8_1" intLanes="" shape="-100.00,0.00 -100.00,6.40 -100.00,0.00"/>
    <junction id="gneJ3" type="dead_end" x="0.00" y="-100.00" incLanes="edge6_0 edge6_1" intLanes="" shape="0.00,-100.00 -6.40,-100.00 0.00,-100.00"/>
    <junction id="gneJ4" type="dead_end" x="100.00" y="0.00" incLanes="edge4_0 edge4_1" intLanes="" shape="100.00,0.00 100.00,-6.40 100.00,0.00"/>

    <junction id=":gneJ1_17_0" type="internal" x="-0.00" y="3.73" incLanes=":gneJ1_3_0 edge5_0 edge5_1" intLanes=":gneJ1_5_0 :gneJ1_5_1 :gneJ1_7_0 :gneJ1_8_0 :gneJ1_9_0 :gneJ1_9_1 :gneJ1_13_0 :gneJ1_14_0 :gneJ1_15_0 :gneJ1_16_0"/>
    <junction id=":gneJ1_18_0" type="internal" x="5.42" y="-0.00" incLanes=":gneJ1_7_0 edge7_0 edge7_1" intLanes=":gneJ1_1_0 :gneJ1_1_1 :gneJ1_3_0 :gneJ1_9_0 :gneJ1_9_1 :gneJ1_11_0 :gneJ1_12_0 :gneJ1_13_0 :gneJ1_15_0"/>
    <junction id=":gneJ1_19_0" type="internal" x="0.00" y="-3.73" incLanes=":gneJ1_11_0 edge1_0 edge1_1" intLanes=":gneJ1_0_0 :gneJ1_1_0 :gneJ1_1_1 :gneJ1_5_0 :gneJ1_5_1 :gneJ1_7_0 :gneJ1_13_0 :gneJ1_14_0 :gneJ1_15_0 :gneJ1_16_0"/>
    <junction id=":gneJ1_20_0" type="internal" x="0.95" y="1.58" incLanes=":gneJ1_14_0 edge3_0 edge3_1" intLanes=":gneJ1_1_0 :gneJ1_1_1 :gneJ1_3_0 :gneJ1_4_0 :gneJ1_5_0 :gneJ1_5_1 :gneJ1_9_0 :gneJ1_9_1 :gneJ1_11_0 :gneJ1_15_0"/>
    <junction id=":gneJ1_21_0" type="internal" x="-3.73" y="-0.00" incLanes=":gneJ1_16_0 edge3_0 edge3_1" intLanes=":gneJ1_1_0 :gneJ1_1_1 :gneJ1_3_0 :gneJ1_4_0 :gneJ1_5_0 :gneJ1_5_1 :gneJ1_9_0 :gneJ1_9_1 :gneJ1_11_0"/>

    <connection from="edge1" to="edge8" fromLane="0" toLane="0" via=":gneJ1_0_0" tl="gneJ1" linkIndex="0" dir="r" state="O"/>
    <connection from="edge1" to="edge6" fromLane="0" toLane="0" via=":gneJ1_1_0" tl="gneJ1" linkIndex="1" dir="s" state="O"/>
    <connection from="edge1" to="edge6" fromLane="1" toLane="1" via=":gneJ1_1_1" tl="gneJ1" linkIndex="2" dir="s" state="O"/>
    <connection from="edge1" to="edge4" fromLane="1" toLane="1" via=":gneJ1_3_0" tl="gneJ1" linkIndex="3" dir="l" state="o"/>
    <connection from="edge3" to="edge2" fromLane="0" toLane="0" via=":gneJ1_4_0" tl="gneJ1" linkIndex="4" dir="r" state="o"/>
    <connection from="edge3" to="edge8" fromLane="0" toLane="0" via=":gneJ1_5_0" tl="gneJ1" linkIndex="5" dir="s" state="o"/>
    <connection from="edge3" to="edge8" fromLane="1" toLane="1" via=":gneJ1_5_1" tl="gneJ1" linkIndex="6" dir="s" state="o"/>
    <connection from="edge3" to="edge6" fromLane="1" toLane="1" via=":gneJ1_7_0" tl="gneJ1" linkIndex="7" dir="l" state="o"/>
    <connection from="edge5" to="edge4" fromLane="0" toLane="0" via=":gneJ1_8_0" tl="gneJ1" linkIndex="8" dir="r" state="O"/>
    <connection from="edge5" to="edge2" fromLane="0" toLane="0" via=":gneJ1_9_0" tl="gneJ1" linkIndex="9" dir="s" state="O"/>
    <connection from="edge5" to="edge2" fromLane="1" toLane="1" via=":gneJ1_9_1" tl="gneJ1" linkIndex="10" dir="s" state="O"/>
    <connection from="edge5" to="edge8" fromLane="1" toLane="1" via=":gneJ1_11_0" tl="gneJ1" linkIndex="11" dir="l" state="o"/>
    <connection from="edge7" to="edge6" fromLane="0" toLane="0" via=":gneJ1_12_0" tl="gneJ1" linkIndex="12" dir="r" state="o"/>
    <connection from="edge7" to="edge4" fromLane="0" toLane="0" via=":gneJ1_13_0" tl="gneJ1" linkIndex="13" dir="s" state="o"/>
    <connection from="edge7" to="edge2" fromLane="0" toLane="0" pass="1" via=":gneJ1_14_0" tl="gneJ1" linkIndex="14" dir="l" state="O"/>
    <connection from="edge7" to="edge4" fromLane="1" toLane="1" via=":gneJ1_15_0" tl="gneJ1" linkIndex="15" dir="s" state="o"/>
    <connection from="edge7" to="edge2" fromLane="1" toLane="1" via=":gneJ1_16_0" tl="gneJ1" linkIndex="16" dir="l" state="o"/>

    <connection from=":gneJ1_0" to="edge8" fromLane="0" toLane="0" dir="r" state="M"/>
    <connection from=":gneJ1_1" to="edge6" fromLane="0" toLane="0" dir="s" state="M"/>
    <connection from=":gneJ1_1" to="edge6" fromLane="1" toLane="1" dir="s" state="M"/>
    <connection from=":gneJ1_3" to="edge4" fromLane="0" toLane="1" via=":gneJ1_17_0" dir="l" state="m"/>
    <connection from=":gneJ1_17" to="edge4" fromLane="0" toLane="1" dir="l" state="M"/>
    <connection from=":gneJ1_4" to="edge2" fromLane="0" toLane="0" dir="r" state="M"/>
    <connection from=":gneJ1_5" to="edge8" fromLane="0" toLane="0" dir="s" state="M"/>
    <connection from=":gneJ1_5" to="edge8" fromLane="1" toLane="1" dir="s" state="M"/>
    <connection from=":gneJ1_7" to="edge6" fromLane="0" toLane="1" via=":gneJ1_18_0" dir="l" state="m"/>
    <connection from=":gneJ1_18" to="edge6" fromLane="0" toLane="1" dir="l" state="M"/>
    <connection from=":gneJ1_8" to="edge4" fromLane="0" toLane="0" dir="r" state="M"/>
    <connection from=":gneJ1_9" to="edge2" fromLane="0" toLane="0" dir="s" state="M"/>
    <connection from=":gneJ1_9" to="edge2" fromLane="1" toLane="1" dir="s" state="M"/>
    <connection from=":gneJ1_11" to="edge8" fromLane="0" toLane="1" via=":gneJ1_19_0" dir="l" state="m"/>
    <connection from=":gneJ1_19" to="edge8" fromLane="0" toLane="1" dir="l" state="M"/>
    <connection from=":gneJ1_12" to="edge6" fromLane="0" toLane="0" dir="r" state="M"/>
    <connection from=":gneJ1_13" to="edge4" fromLane="0" toLane="0" dir="s" state="M"/>
    <connection from=":gneJ1_14" to="edge2" fromLane="0" toLane="0" via=":gneJ1_20_0" dir="l" state="m"/>
    <connection from=":gneJ1_20" to="edge2" fromLane="0" toLane="0" dir="l" state="M"/>
    <connection from=":gneJ1_15" to="edge4" fromLane="0" toLane="1" dir="s" state="M"/>
    <connection from=":gneJ1_16" to="edge2" fromLane="0" toLane="1" via=":gneJ1_21_0" dir="l" state="m"/>
    <connection from=":gneJ1_21" to="edge2" fromLane="0" toLane="1" dir="l" state="M"/>

    <connection from=":gneJ0_w0" to="edge1" fromLane="0" toLane="0" dir="s" state="M"/>
    <connection from="edge2" to=":gneJ0_w0" fromLane="0" toLane="0" dir="s" state="M"/>
    <connection from=":gneJ1_w0" to="edge2" fromLane="0" toLane="0" dir="s" state="M"/>
    <connection from=":gneJ1_w0" to="edge4" fromLane="0" toLane="0" dir="s" state="M"/>
    <connection from=":gneJ1_w0" to="edge6" fromLane="0" toLane="0" dir="s" state="M"/>
    <connection from=":gneJ1_w0" to="edge8" fromLane="0" toLane="0" dir="s" state="M"/>
    <connection from="edge1" to=":gneJ1_w0" fromLane="0" toLane="0" dir="s" state="M"/>
    <connection from="edge3" to=":gneJ1_w0" fromLane="0" toLane="0" dir="s" state="M"/>
    <connection from="edge5" to=":gneJ1_w0" fromLane="0" toLane="0" dir="s" state="M"/>
    <connection from="edge7" to=":gneJ1_w0" fromLane="0" toLane="0" dir="s" state="M"/>
    <connection from=":gneJ2_w0" to="edge7" fromLane="0" toLane="0" dir="s" state="M"/>
    <connection from="edge8" to=":gneJ2_w0" fromLane="0" toLane="0" dir="s" state="M"/>
    <connection from=":gneJ3_w0" to="edge5" fromLane="0" toLane="0" dir="s" state="M"/>
    <connection from="edge6" to=":gneJ3_w0" fromLane="0" toLane="0" dir="s" state="M"/>
    <connection from=":gneJ4_w0" to="edge3" fromLane="0" toLane="0" dir="s" state="M"/>
    <connection from="edge4" to=":gneJ4_w0" fromLane="0" toLane="0" dir="s" state="M"/>
</net>
