<additional>
  <inductionLoop id="gneE0" lane="gneE0_0" pos="20" freq="100" file="out_E1.xml"/>
</additional> 