<configuration>
<!-- The duarouter configuration file takes as input your network and the OD Trips File and output 
the route file --> 
<input> 
<net-file value="input_net.net.xml"/> <!-- Your SUMO Network File --> 
<route-files value="od_file.odtrips.xml"/> <!-- Your SUMO OD Trips File -->
</input> 
<output> 
<output-file value="od_route_file.odtrips.rou.xml"/>
</output> 
<report> 
<xml-validation value="never"/> 
<no-step-log value="true"/> 
</report>
</configuration>