<additional>
<tazs> 
<taz id="1" edges="-gneE0"></taz> 
<taz id="2" edges="-gneE1"></taz> 
<taz id="3" edges="gneE4"></taz> 
<taz id="4" edges="-gneE5"></taz> 
</tazs>
</additional>