<configuration>
<input>
<net-file value="input_net.net.xml"/>
<route-files value="od_route_file.odtrips.rou.xml"/>
</input>
<time>
<begin value="0"/>
<end value="2000"/>
</time>
<gui_only>
<start value="t"/>
<quit-on-end value="e"/>
</gui_only>
</configuration>